Circuit: * E:\KiCAD\Projects\AIAA\NASA SLI\Avionics Power Regulation Board\Avionics-Power-Regulation-Board\Avionics Power Regulation Board\NETLIST\Draft1.asc

Fatal Error: No analysis request found.
